matpower4.1/d_009ieee.cf
 05/27/14 PSAT ARCHIVE         100.00 2014 S 9-Bus 9-Line System                                                                
BUS DATA FOLLOWS                        9 ITEMS                                                                                 
   1  BUS-1   100  1  0  3 1.0400  0.000   0.0000    0.0000  71.641   0.000  100.00 1.0400 9999.00-9999.00  0.0000  0.0000    1
   2  BUS-2   100  1  0  2 1.0250  9.280   0.0000    0.0000 163.000   0.000  100.00 1.0250 9999.00-9999.00  0.0000  0.0000    2
   3  BUS-3   100  1  0  2 1.0250  4.664   0.0000    0.0000  85.000   0.000  100.00 1.0250 9999.00-9999.00  0.0000  0.0000    3
   4  BUS-4   100  1  0  0 1.0250 -2.216   0.0000    0.0000   0.000   0.000  100.00 1.0000    0.00    0.00  0.0000  0.0000    4
   5  BUS-5   100  1  0  1 0.9950 -3.988 125.0000   50.0000   0.000   0.000  100.00 1.0000    0.00    0.00  0.0000  0.0000    5
   6  BUS-6   100  1  0  1 1.0120 -3.687  90.0000   30.0000   0.000   0.000  100.00 1.0000    0.00    0.00  0.0000  0.0000    6
   7  BUS-7   100  1  0  0 1.0250  3.720   0.0000    0.0000   0.000   0.000  100.00 1.0000    0.00    0.00  0.0000  0.0000    7
   8  BUS-8   100  1  0  1 1.0150  0.728 100.0000   35.0000   0.000   0.000  100.00 1.0000    0.00    0.00  0.0000  0.0000    8
   9  BUS-9   100  1  0  0 1.0320  1.967   0.0000    0.0000   0.000   0.000  100.00 1.0000    0.00    0.00  0.0000  0.0000    9
-999
BRANCH DATA FOLLOWS                     9 ITEMS                                                                                 
   4    1  1 1  1 0 0.0000000 0.05760000 0.0000000    0     0     0    0 0  0.0000   0.000 0.0000 0.0000 0.0000  0.0000 0.0000
   7    2  1 1  1 0 0.0000000 0.06250000 0.0000000    0     0     0    0 0  0.0000   0.000 0.0000 0.0000 0.0000  0.0000 0.0000
   9    3  1 1  1 0 0.0000000 0.05860000 0.0000000    0     0     0    0 0  0.0000   0.000 0.0000 0.0000 0.0000  0.0000 0.0000
   7    8  1 1  1 0 0.0085000 0.07200000 0.1490000    0     0     0    0 0  0.0000   0.000 0.0000 0.0000 0.0000  0.0000 0.0000
   9    8  1 1  1 0 0.0119000 0.10080000 0.2090000    0     0     0    0 0  0.0000   0.000 0.0000 0.0000 0.0000  0.0000 0.0000
   7    5  1 1  1 0 0.0320000 0.16100000 0.3060000    0     0     0    0 0  0.0000   0.000 0.0000 0.0000 0.0000  0.0000 0.0000
   9    6  1 1  1 0 0.0390000 0.17000000 0.3580000    0     0     0    0 0  0.0000   0.000 0.0000 0.0000 0.0000  0.0000 0.0000
   5    4  1 1  1 0 0.0100000 0.08500000 0.1760000    0     0     0    0 0  0.0000   0.000 0.0000 0.0000 0.0000  0.0000 0.0000
   6    4  1 1  1 0 0.0170000 0.09200000 0.1580000    0     0     0    0 0  0.0000   0.000 0.0000 0.0000 0.0000  0.0000 0.0000
-999
LOSS ZONES FOLLOWS                      1 ITEMS                                                                                 
  1 9-Bus       
-99
INTERCHANGE DATA FOLLOWS                1 ITEMS                                                                                 
 1    1 BUS-1   100     0.00 999.99  9Bus    9-Bus 9-Line System           
-9
TIE LINES FOLLOWS                       0 ITEMS                                                                                 
-999
END OF DATA 